<?xml version="1.0" encoding="UTF-8"?>

<!-- generated on 2023-05-19 20:44:00 by Eclipse SUMO GUI Version 1.14.1
-->

<configuration xmlns:xsi="http://www.w3.org/2001/XMLSchema-instance" xsi:noNamespaceSchemaLocation="http://sumo.dlr.de/xsd/sumoConfiguration.xsd">

    <input>
        <net-file value="aaa.net.xml"/>
        <route-files value="aaa.rou.xml"/>
    </input>

</configuration>
